<flows xmlns:xsi="http://www.w3.org/2001/XMLSchema-instance">
    <routes xsi:noNamespaceSchemaLocation="http://sumo.dlr.de/xsd/routes_file.xsd">
        <route edges="OrigionW4 -135626767#7 -135626767#6 -135626767#5 -135626767#3 DestinationS1" id="w4-s1"/>
        <route edges="OrigionW1 240980015 -8882129#1 -8882129#0 162259815#0 162259815#1 162259815#2 162259815#3 162259815#4 162259815#5 162259815#7 DestinationS3" id="w1-s3"/>
        <!-- <route edges="OrigionW2 135626767#7 240833369#0 240833369#1 240833369#3 240833369#4 240833369#5 240833369#6 240833369#7 135626758 135626792#0 135626792#1 135626792#2 135626792#3 135626792#4 135626792#6 492979892 -230239443#2 -230239443#1 -230239443#0 -230239442 -448953275#1 DestinationE4" id="w2-e4"/>-->
        <route edges="OrigionW3 91568767#5 91568767#6 91568767#8 91568767#9 91568767#10 135626766 135626762#0 135626762#1 135626762#2 69555386#0 69555386#1 69555386#2 DestinationE3" id="w3-e3"/>
        <route edges="OrigionW5 -100323308#10 -100323308#9 -100323308#8 -100323308#7 -100323308#6 -100323308#5 69555386#0 69555386#1 69555386#2 38869048#3 38869048#4 230493753 230493752#0 DestinationE1" id="w5-e1"/>
        <route edges="OrigionW6 -230239448#0 -230239447 -230491007 135626762#1 135626762#2 100323308#5 492979896#2 -230239443#2 -230239443#1 -38869048#1 24626397 230239444 230239445#0 DestinationE5" id="w6-e5"/>
        <route edges="OrigionS1 135626767#3 91568767#5 91568767#6 91568767#8 91568767#9 91568767#10 135626766 135626762#0 135626762#1 135626762#2 100323308#5 100323308#6 100323308#7 100323308#8 100323308#9 100323308#10 DestinationW5" id="s1-w5"/>
        <route edges="OrigionS2 91568767#6 135626776#3 135626776#4 135626776#5 135626776#6 135626776#7 162259820#0 162259820#1 162259820#2 104758675 104758670 104758678#0 104758678#1 DestinationN7" id="s2-n7"/>
        <route edges="OrigionS4 135626776#1 91568767#8 91568767#9 70438941#1 70438941#2 70438941#3 70438941#4 70438941#5 70438941#6 -135626769#0 -135626782 -68313226#4 DestinationN5" id="s4-n5"/>
        <route edges="OrigionS5 91568767#9 91568767#10 135626766 135626762#0 253924915#0 253924915#1 492981118#0 135626792#2 135626792#3 135626792#4 135626792#6 492979895#0 492979895#1 492979895#2 72084621 72084599#0 412826784#1 412826784#2 DestinationE6" id="s5-e6"/>
        <route edges="OrigionS6 -230239448#0 -230239447 -230491007 135626762#1 135626762#2 100323308#5 100323308#6 100323308#7 100323308#8 100323308#9 100323308#10 DestinationW5" id="s6-w5"/>
        <route edges="OrigionS7 100323308#2 100323308#3 100323308#5 100323308#6 100323308#7 100323308#8 100323308#9 100323308#10 100323308#11 100323308#12 72084632 72084610 85711505#0 85711505#1 DestinationN4" id="s7-n4"/>
        <!-- <route edges="OrigionS8 93864597#3 93864597#4 -230493750#1 -230493745#0 -230493746 -38868886#1 100323308#2 100323308#3 100323308#5 100323308#6 100323308#7 100323308#8 -135626792#4 -135626792#3 -135626792#2 -135626792#1 -135626792#0 -135626758 -240833369#7 -240833369#6 -240833369#5 -240833369#4 -240833369#3 -240833369#1 -240833369#0 DestinationW4" id="s8-w4"/>-->
        <!-- <route edges="OrigionE1 -230493752#0 -230493753 -38869048#4 -38869048#3 -69555386#2 -69555386#1 -69555386#0 100323308#5 100323308#6 100323308#7 100323308#8 -135626792#4 -135626792#3 -135626792#2 -135626792#1 -135626792#0 -135626758 -240833369#7 -240833369#6 -240833369#5 -240833369#4 -240833369#3 8882129#0 8882129#1 -240980015 DestinationW1" id="e1-w1"/>-->
        <route edges="OrigionE2 230493748 230493747#0 -38869048#3 -69555386#2 -69555386#1 -69555386#0 100323308#5 100323308#6 100323308#7 100323308#8 100323308#9 100323308#10 DestinationW5" id="e2-w5"/>
        <route edges="OrigionE3 -69555386#2 -69555386#1 -69555386#0 100323308#5 100323308#6 100323308#7 100323308#8 -135626792#4 -135626792#3 -135626792#2 492981118#1 492981118#2 -253924916 -253924912 -473715122#1 85711505#1 DestinationN4" id="e3-n4"/>
        <!-- <route edges="OrigionE4 448953275#1 230239442 230239443#0 230239443#1 230239443#2 -492979892 -135626792#6 -135626792#4 -135626792#3 -135626792#2 -135626792#1 -135626792#0 -135626758 -240833369#7 -240833369#6 -240833369#5 -240833369#4 -240833369#3 -240833369#1 -240833369#0 -135626767#7 DestinationW2" id="e4-w2"/>-->
        <route edges="OrigionE5 -230239445#0 -230239444 -24626397 -38869048#0 -38869999#4 -38869999#3 -38869999#2 -38869999#1 -253924916 -253924912 -473715122#1 85711505#1 85711505#2 85711505#4 DestinationN6" id="e5-n6"/>
        <route edges="OrigionE6 -72084599#0 -72084621 -492979895#2 -38869999#4 -38869999#3 -38869999#2 -38869999#1 -253924916 -253924912 -473715122#1 DestinationN3" id="e6-n3"/>
        <route edges="OrigionN1 -72084599#0 -72084621 -492979895#2 -492979895#1 -492979895#0 -135626792#6 -100323308#8 -100323308#7 -100323308#6 -100323308#5 69550029#1 492979883 230491007 230239447 230239448#0 DestinationS6" id="n1-s6"/>
        <route edges="OrigionN2 -72084599#0 -72084621 -492979895#2 -492979895#1 -492979895#0 492979892 492979887#0 492979887#1 492979887#2 492979887#3 230493751 230493750#0 230493750#1 93864593#0 93864593#1 DestinationS8" id="n2-s8"/>
        <route edges="OrigionN3 -85711505#0 -72084610 -72084632 -100323308#12 -100323308#11 -100323308#10 -100323308#9 -100323308#8 -100323308#7 -100323308#6 -100323308#5 542054843#1 542054843#2 DestinationS7" id="n3-s7"/>
        <route edges="OrigionN4 -85711505#1 473715122#1 253924912 253924916 38869999#1 38869999#2 38869999#3 38869999#4 38869048#0 24626397 230239444 230239445#0 DestinationE5" id="n4-e5"/>
        <route edges="OrigionN5 68313226#4 135626782 135626769#0 135626769#1 135626769#2 253924914#2 253924914#3 253924914#4 253924914#5 253924914#6 253924914#7 492979884#0 492979884#1 492979884#3 492979884#4 DestinationW3" id="n5-w3"/>
        <route edges="OrigionN6 -85711505#4 -85711505#2 -85711505#1 473715122#1 253924912 253924916 38869999#1 38869999#2 38869999#3 38869999#4 492979895#2 72084621 72084599#0 DestinationN2" id="n6-n2"/>
        <route edges="OrigionN7 44578496#3 104758666 104758664 104758665 104758667#0 104758667#1 104758667#2 162259815#0 162259815#1 162259815#2 162259815#3 162259815#4 162259815#5 162259815#7 DestinationS3" id="n7-s3"/>
        <route edges="OrigionW8 38866846#1 38866846#2 38866846#3 135626787 135626763#0 135626763#1 492981119 492979896#0 492979896#2 -230239443#2 -230239443#1 -230239443#0 -230239442 -448953275#1 DestinationE4" id="w8-e4"/>
        <route edges="OrigionE4 448953275#1 230239442 230239443#0 230239443#1 230239443#2 -492979896#2 -492979896#0 -492981119 -135626763#1 -135626763#0 -135626787 -38866846#3 -38866846#2 -38866846#1 DestinationW8" id="e4-w8"/>
        <route edges="OrigionN6 -85711505#4 -85711505#2 -85711505#1 473715122#1 253924912 253924916 38869999#1 38869999#2 38869999#3 38869999#4 38869048#0 24626397 230239444 230239445#0 DestinationE5" id="n6-e5"/>
        <route edges="OrigionW7 253924913 95775639#0 95775639#1 95775639#2 95775639#3 95775639#4 95775639#5 492979884#1 492979884#3 DestinationS2" id="w7-s2"/>
        <route edges="OrigionW2 135626767#7 240833369#0 240833369#1 162259820#0 162259820#1 162259820#2 104758675 104758670 104758678#0 85711505#4 DestinationN6" id="w2-n6"/>
        <route edges="OrigionE3 -38869048#2 -38869048#1 -38869048#0 -38869999#4 -38869999#3 -38869999#2 -38869999#1 -253924916 -253924912 -473715122#1 DestinationN3" id="e3-n3"/>
        <route edges="OrigionE1 -230493745#2 -230493745#1 -230493750#0 -230493751 -492979887#3 -492979887#2 -492979887#1 -492979887#0 -492979892 -38867851 -38869999#3 -100323308#11 DestinationW5" id="e1-w5"/>
        <route edges="OrigionE5 -230239445#0 -230239444 -24626397 38869048#1 38869048#2 38869048#3 38869048#4 230493753 230493752#0 DestinationE1" id="e5-e1"/>
        <route edges="OrigionS1 135626767#3 135626767#5 135626767#6 135626767#7 DestinationW4" id="s1-w4"/>
        <route edges="OrigionE3 -69555386#2 -69555386#1 -69555386#0 69550029#1 492979883 492981120 135626779 135626780#0 135626780#1 135626780#2 DestinationS5" id="e3-s5"/>
        <route edges="OrigionN4 85711505#2 104758666 104758664 104758665 104758667#0 104758667#1 104758667#2 162259815#0 162259815#1 162259815#2 69059186#0 69059186#1 69059186#2 DestinationW2" id="n4-w2"/>
        <route edges="OrigionW9 240833369#4 240833369#5 240833369#6 240833369#7 135626758 135626792#0 135626792#1 492981118#1 492981118#2 -253924916 -253924912 -473715122#1 DestinationN3" id="w9-n3"/>
        <route edges="OrigionW9 240833369#4 240833369#5 240833369#6 240833369#7 135626758 135626792#0 135626792#1 135626792#2 135626792#3 135626792#4 135626792#6 492979895#0 492979895#1 492979895#2 72084621 72084599#0 DestinationN1" id="w9-n1"/>
        <route edges="OrigionW7 135626788#1 135626788#2 135626788#3 135626760 38869999#0 38869999#1 68313224#0 68313224#1 68313224#2 492979886 135626762#2 542054843#1 542054843#2 DestinationS7" id="w7-s7"/>
        <route edges="OrigionW5 -100323308#10 68313226#0 68313226#1 68313226#2 68313226#3 68313226#4 135626782 135626769#0 135626769#1 135626769#2 135626769#3 95775639#0 DestinationW9" id="w5-w9"/>
    </routes>
    <interval begin="0" end="3600">
        <flow from="OrigionN5" id="n5-w3" number="100" route="n5-w3" to="DestinationW3"/>
        <flow from="OrigionW4" id="w4-s1" number="100" route="w4-s1" to="DestinationS1"/>
        <flow from="OrigionN7" id="n7-s3" number="100" route="n7-s3" to="DestinationS3"/>
        <flow from="OrigionS2" id="s2-n7" number="60" route="s2-n7" to="DestinationN7"/>
        <flow from="OrigionS7" id="s7-n4" number="100" route="s7-n4" to="DestinationN4"/>
        <flow from="OrigionS4" id="s4-n5" number="100" route="s4-n5" to="DestinationN5"/>
        <flow from="OrigionN1" id="n1-s6" number="60" route="n1-s6" to="DestinationS6"/>
        <flow from="OrigionS6" id="s6-w5" number="100" route="s6-w5" to="DestinationW5"/>
        <flow from="OrigionN3" id="n3-s7" number="100" route="n3-s7" to="DestinationS7"/>
        <flow from="OrigionN6" id="n6-e5" number="100" route="n6-e5" to="DestinationE5"/>
        <flow from="OrigionS5" id="s5-e6" number="100" route="s5-e6" to="DestinationE6"/>
        <flow from="OrigionW8" id="w8-e4" number="100" route="w8-e4" to="DestinationE4"/>
        <flow from="OrigionW3" id="w3-e3" number="60" route="w3-e3" to="DestinationE3"/>
        <flow from="OrigionN2" id="n2-s8" number="60" route="n2-s8" to="DestinationS8"/>
        <flow from="OrigionE4" id="e4-w8" number="100" route="e4-w8" to="DestinationW8"/>
        <flow from="OrigionW7" id="w7-s2" number="100" route="w7-s2" to="DestinationS2"/>
        <flow from="OrigionW2" id="w2-n6" number="60" route="w2-n6" to="DestinationN6"/>
        <flow from="OrigionE3" id="e3-n3" number="60" route="e3-n3" to="DestinationN3"/>
        <flow from="OrigionE1" id="e1-w5" number="60" route="e1-w5" to="DestinationW5"/>
        <flow from="OrigionE5" id="e5-e1" number="60" route="e5-e1" to="DestinationE1"/>
        <flow from="OrigionS1" id="s1-w4" number="100" route="s1-w4" to="DestinationW4"/>
        <flow from="OrigionE3" id="e3-s5" number="60" route="e3-s5" to="DestinationS5"/>
        <flow from="OrigionN4" id="n4-w2" number="100" route="n4-w2" to="DestinationW2"/>
        <flow from="OrigionW9" id="w9-n3" number="100" route="w9-n3" to="DestinationN3"/>
        <flow from="OrigionW9" id="w9-n1" number="60" route="w9-n1" to="DestinationN1"/>
        <flow from="OrigionW7" id="w7-s7" number="60" route="w7-s7" to="DestinationS7"/>
        <flow from="OrigionW5" id="w5-w9" number="100" route="w5-w9" to="DestinationW9"/>
    </interval>
</flows>