<?xml version="1.0" encoding="UTF-8"?>

<!-- generated on 11/15/18 16:09:51 by SUMO netconvert Version 0.32.0
<?xml version="1.0" encoding="UTF-8"?>

<configuration xmlns:xsi="http://www.w3.org/2001/XMLSchema-instance" xsi:noNamespaceSchemaLocation="http://sumo.dlr.de/xsd/netconvertConfiguration.xsd">

    <input>
        <node-files value="join-node.nod.xml"/>
        <osm-files value="Chj.osm"/>
    </input>

    <output>
        <output-file value="Chj-with-node-join.net.xml"/>
    </output>

    <projection>
        <proj.utm value="true"/>
    </projection>

    <tls_building>
        <tls.discard-loaded value="true"/>
    </tls_building>

    <processing>
        <junctions.join-dist value="100"/>
    </processing>

</configuration>
-->

<net version="0.27" xmlns:xsi="http://www.w3.org/2001/XMLSchema-instance" xsi:noNamespaceSchemaLocation="http://sumo.dlr.de/xsd/net_file.xsd">

    <location netOffset="-338960.30,-3446124.53" convBoundary="0.00,0.00,35654.85,14623.59" origBoundary="121.310797,31.138008,121.682872,31.274281" projParameter="+proj=utm +zone=51 +ellps=WGS84 +datum=WGS84 +units=m +no_defs"/>

    <type id="highway.bridleway" priority="1" numLanes="1" speed="2.78" allow="pedestrian" oneway="1" width="2.00"/>
    <type id="highway.bus_guideway" priority="1" numLanes="1" speed="8.33" allow="bus" oneway="1"/>
    <type id="highway.cycleway" priority="1" numLanes="1" speed="5.56" allow="bicycle" oneway="0" width="1.00"/>
    <type id="highway.footway" priority="1" numLanes="1" speed="2.78" allow="pedestrian" oneway="1" width="2.00"/>
    <type id="highway.ford" priority="1" numLanes="1" speed="2.78" allow="army" oneway="0"/>
    <type id="highway.living_street" priority="3" numLanes="1" speed="2.78" disallow="tram rail_urban rail rail_electric ship" oneway="0"/>
    <type id="highway.motorway" priority="13" numLanes="2" speed="44.44" allow="private emergency authority army vip passenger hov taxi bus coach delivery truck trailer motorcycle evehicle custom1 custom2" oneway="1"/>
    <type id="highway.motorway_link" priority="12" numLanes="1" speed="22.22" allow="private emergency authority army vip passenger hov taxi bus coach delivery truck trailer motorcycle evehicle custom1 custom2" oneway="1"/>
    <type id="highway.path" priority="1" numLanes="1" speed="2.78" allow="bicycle pedestrian" oneway="1" width="2.00"/>
    <type id="highway.pedestrian" priority="1" numLanes="1" speed="2.78" allow="pedestrian" oneway="1" width="2.00"/>
    <type id="highway.primary" priority="9" numLanes="2" speed="27.78" disallow="tram rail_urban rail rail_electric ship" oneway="0"/>
    <type id="highway.primary_link" priority="8" numLanes="1" speed="22.22" disallow="tram rail_urban rail rail_electric ship" oneway="0"/>
    <type id="highway.raceway" priority="14" numLanes="2" speed="83.33" allow="vip" oneway="0"/>
    <type id="highway.residential" priority="4" numLanes="1" speed="13.89" disallow="tram rail_urban rail rail_electric ship" oneway="0"/>
    <type id="highway.secondary" priority="7" numLanes="2" speed="27.78" disallow="tram rail_urban rail rail_electric ship" oneway="0"/>
    <type id="highway.secondary_link" priority="6" numLanes="1" speed="22.22" disallow="tram rail_urban rail rail_electric ship" oneway="0"/>
    <type id="highway.service" priority="2" numLanes="1" speed="5.56" allow="delivery bicycle pedestrian" oneway="0"/>
    <type id="highway.services" priority="1" numLanes="1" speed="8.33" disallow="tram rail_urban rail rail_electric ship" oneway="0"/>
    <type id="highway.stairs" priority="1" numLanes="1" speed="1.39" allow="pedestrian" oneway="1" width="2.00"/>
    <type id="highway.step" priority="1" numLanes="1" speed="1.39" allow="pedestrian" oneway="1" width="2.00"/>
    <type id="highway.steps" priority="1" numLanes="1" speed="1.39" allow="pedestrian" oneway="1" width="2.00"/>
    <type id="highway.tertiary" priority="6" numLanes="1" speed="22.22" disallow="tram rail_urban rail rail_electric ship" oneway="0"/>
    <type id="highway.tertiary_link" priority="5" numLanes="1" speed="22.22" disallow="tram rail_urban rail rail_electric ship" oneway="0"/>
    <type id="highway.track" priority="1" numLanes="1" speed="5.56" disallow="tram rail_urban rail rail_electric ship" oneway="0"/>
    <type id="highway.trunk" priority="11" numLanes="2" speed="27.78" disallow="tram rail_urban rail rail_electric bicycle pedestrian ship" oneway="0"/>
    <type id="highway.trunk_link" priority="10" numLanes="1" speed="22.22" disallow="tram rail_urban rail rail_electric bicycle pedestrian ship" oneway="0"/>
    <type id="highway.unclassified" priority="5" numLanes="1" speed="13.89" disallow="tram rail_urban rail rail_electric ship" oneway="0"/>
    <type id="highway.unsurfaced" priority="1" numLanes="1" speed="8.33" disallow="tram rail_urban rail rail_electric ship" oneway="0"/>
    <type id="railway.light_rail" priority="15" numLanes="1" speed="27.78" allow="rail_urban" oneway="1"/>
    <type id="railway.preserved" priority="15" numLanes="1" speed="27.78" allow="rail" oneway="1"/>
    <type id="railway.rail" priority="15" numLanes="1" speed="83.33" allow="rail rail_electric" oneway="1"/>
    <type id="railway.subway" priority="15" numLanes="1" speed="27.78" allow="rail_urban" oneway="1"/>
    <type id="railway.tram" priority="15" numLanes="1" speed="13.89" allow="tram" oneway="1"/>

    <edge id=":107673297_0" function="internal">
        <lane id=":107673297_0_0" index="0" disallow="tram rail_urban rail rail_electric ship" speed="27.78" length="4.82" shape="11188.26,6063.10 11188.10,6064.58 11187.55,6065.32 11186.63,6065.34 11185.33,6064.61"/>
    </edge>
    <edge id=":1091072334_0" function="internal">
        <lane id=":1091072334_0_0" index="0" disallow="tram rail_urban rail rail_electric ship" speed="22.22" length="0.10" shape="10590.11,2510.84 10590.11,2510.84"/>
    </edge>
    <edge id=":1091072507_0" function="internal">
        <lane id=":1091072507_0_0" index="0" disallow="tram rail_urban rail rail_electric ship" speed="22.22" length="1.35" shape="10584.63,2523.70 10584.53,2523.37 10584.50,2523.04 10584.54,2522.71 10584.65,2522.39"/>
    </edge>
    <edge id=":1091072603_0" function="internal">
        <lane id=":1091072603_0_0" index="0" disallow="tram rail_urban rail rail_electric ship" speed="22.22" length="0.10" shape="10862.86,2195.05 10862.86,2195.05"/>
    </edge>
    <edge id=":1091072607_0" function="internal">
        <lane id=":1091072607_0_0" index="0" disallow="tram rail_urban rail rail_electric ship" speed="22.22" length="0.10" shape="10884.69,2173.17 10884.69,2173.17"/>
    </edge>
    <edge id=":1091232741_0" function="internal">
        <lane id=":1091232741_0_0" index="0" disallow="tram rail_urban rail rail_electric ship" speed="25.00" length="7.35" shape="9946.06,2808.34 9945.10,2807.91 9944.54,2806.67 9944.37,2804.62 9944.58,2801.75"/>
    </edge>
    <edge id=":1091232741_1" function="internal">
        <lane id=":1091232741_1_0" index="0" disallow="tram rail_urban rail rail_electric ship" speed="22.22" length="4.82" shape="9946.06,2808.34 9944.84,2807.49 9944.45,2806.66 9944.88,2805.84 9946.14,2805.05"/>
    </edge>
    <edge id=":1091232741_2" function="internal">
        <lane id=":1091232741_2_0" index="0" disallow="tram rail_urban rail rail_electric ship" speed="27.78" length="9.52" shape="9940.09,2810.77 9941.31,2801.34"/>
        <lane id=":1091232741_2_1" index="1" disallow="tram rail_urban rail rail_electric ship" speed="27.78" length="9.52" shape="9943.36,2811.20 9944.58,2801.75"/>
    </edge>
    <edge id=":1091232741_4" function="internal">
        <lane id=":1091232741_4_0" index="0" disallow="tram rail_urban rail rail_electric ship" speed="25.00" length="7.14" shape="9943.36,2811.20 9943.84,2808.49 9944.47,2806.56 9945.23,2805.41 9946.14,2805.05"/>
    </edge>
    <edge id=":1104565810_0" function="internal">
        <lane id=":1104565810_0_0" index="0" allow="rail_urban" speed="27.78" length="0.25" shape="10304.71,4942.04 10304.49,4942.16"/>
    </edge>
    <edge id=":1104565870_0" function="internal">
        <lane id=":1104565870_0_0" index="0" allow="rail_urban" speed="27.78" length="0.26" shape="10302.22,4938.21 10301.99,4938.33"/>
    </edge>
    <edge id=":1110091468_0" function="internal">
        <lane id=":1110091468_0_0" index="0" disallow="tram rail_urban rail rail_electric ship" speed="13.89" length="4.84" shape="8005.57,4127.08 8004.27,4127.02 8003.20,4127.36 8002.38,4128.11 8001.80,4129.28"/>
    </edge>
    <edge id=":1110091468_1" function="internal">
        <lane id=":1110091468_1_0" index="0" disallow="tram rail_urban rail rail_electric ship" speed="13.89" length="2.94" shape="8005.57,4127.08 8003.74,4126.31 8003.20,4125.52"/>
    </edge>
    <edge id=":1110091468_2" function="internal">
        <lane id=":1110091468_2_0" index="0" disallow="tram rail_urban rail rail_electric ship" speed="13.89" length="2.21" shape="8005.57,4127.08 8004.51,4126.04 8004.31,4125.35"/>
    </edge>
    <edge id=":1110091468_6" function="internal">
        <lane id=":1110091468_6_0" index="0" speed="13.89" length="5.85" shape="8003.20,4125.52 8002.76,4124.86 8002.64,4122.72 8003.36,4119.90"/>
    </edge>
    <edge id=":1110091468_7" function="internal">
        <lane id=":1110091468_7_0" index="0" speed="13.89" length="2.61" shape="8004.31,4125.35 8004.26,4125.15 8004.82,4124.42 8006.19,4123.84"/>
    </edge>
    <edge id=":1110091468_3" function="internal">
        <lane id=":1110091468_3_0" index="0" disallow="tram rail_urban rail rail_electric ship" speed="13.89" length="9.59" shape="7998.67,4128.21 7999.82,4125.64 8000.98,4124.05 8002.16,4122.46 8003.36,4119.90"/>
    </edge>
    <edge id=":1110091468_4" function="internal">
        <lane id=":1110091468_4_0" index="0" disallow="tram rail_urban rail rail_electric ship" speed="13.89" length="9.64" shape="7998.67,4128.21 7999.84,4125.90 8001.48,4124.39 8003.59,4123.71 8006.19,4123.84"/>
    </edge>
    <edge id=":1110091468_5" function="internal">
        <lane id=":1110091468_5_0" index="0" disallow="tram rail_urban rail rail_electric ship" speed="13.89" length="2.69" shape="7998.67,4128.21 7999.85,4127.31 8000.77,4127.18 8000.96,4127.38"/>
    </edge>
    <edge id=":1110091468_8" function="internal">
        <lane id=":1110091468_8_0" index="0" speed="13.89" length="2.13" shape="8000.96,4127.38 8001.41,4127.84 8001.80,4129.28"/>
    </edge>
    <edge id=":1110091505_0" function="internal">
        <lane id=":1110091505_0_0" index="0" disallow="tram rail_urban rail rail_electric ship" speed="22.22" length="7.18" shape="8289.34,3349.55 8282.31,3348.09"/>
    </edge>
    <edge id=":1110091505_1" function="internal">
        <lane id=":1110091505_1_0" index="0" disallow="tram rail_urban rail rail_electric ship" speed="18.06" length="3.27" shape="8289.34,3349.55 8287.85,3348.81 8287.11,3347.39"/>
    </edge>
    <edge id=":1110091505_2" function="internal">
        <lane id=":1110091505_2_0" index="0" disallow="tram rail_urban rail rail_electric ship" speed="22.22" length="2.41" shape="8289.34,3349.55 8288.30,3348.49 8288.07,3347.59"/>
    </edge>
    <edge id=":1110091505_9" function="internal">
        <lane id=":1110091505_9_0" index="0" speed="18.06" length="5.01" shape="8287.11,3347.39 8287.13,3345.28 8287.90,3342.49"/>
    </edge>
    <edge id=":1110091505_10" function="internal">
        <lane id=":1110091505_10_0" index="0" speed="22.22" length="2.41" shape="8288.07,3347.59 8288.64,3346.87 8290.03,3346.32"/>
    </edge>
    <edge id=":1110091505_3" function="internal">
        <lane id=":1110091505_3_0" index="0" disallow="tram rail_urban rail rail_electric ship" speed="18.06" length="6.05" shape="8282.97,3344.86 8284.70,3345.00 8286.09,3344.65 8287.16,3343.81 8287.90,3342.49"/>
    </edge>
    <edge id=":1110091505_4" function="internal">
        <lane id=":1110091505_4_0" index="0" disallow="tram rail_urban rail rail_electric ship" speed="22.22" length="7.20" shape="8282.97,3344.86 8290.03,3346.32"/>
    </edge>
    <edge id=":1110091505_5" function="internal">
        <lane id=":1110091505_5_0" index="0" disallow="tram rail_urban rail rail_electric ship" speed="22.22" length="2.41" shape="8282.97,3344.86 8284.02,3345.91 8284.26,3346.80"/>
    </edge>
    <edge id=":1110091505_11" function="internal">
        <lane id=":1110091505_11_0" index="0" speed="22.22" length="2.41" shape="8284.26,3346.80 8283.69,3347.53 8282.31,3348.09"/>
    </edge>
    <edge id=":1110091505_6" function="internal">
        <lane id=":1110091505_6_0" index="0" disallow="tram rail_urban rail rail_electric ship" speed="18.06" length="5.19" shape="8284.45,3351.92 8284.75,3350.49 8284.49,3349.38 8283.68,3348.58 8282.31,3348.09"/>
    </edge>
    <edge id=":1110091505_7" function="internal">
        <lane id=":1110091505_7_0" index="0" disallow="tram rail_urban rail rail_electric ship" speed="13.89" length="10.04" shape="8284.45,3351.92 8287.90,3342.49"/>
    </edge>
    <edge id=":1110091505_8" function="internal">
        <lane id=":1110091505_8_0" index="0" disallow="tram rail_urban rail rail_electric ship" speed="18.06" length="8.56" shape="8284.45,3351.92 8285.66,3349.21 8286.99,3347.37 8288.45,3346.41 8290.03,3346.32"/>
    </edge>
    <edge id=":1110091506_0" function="internal">
        <lane id=":1110091506_0_0" index="0" disallow="tram rail_urban rail rail_electric ship" speed="13.89" length="1.63" shape="8369.21,3131.09 8367.76,3130.33"/>
    </edge>
    <edge id=":1110091506_1" function="internal">
        <lane id=":1110091506_1_0" index="0" disallow="tram rail_urban rail rail_electric ship" speed="13.89" length="1.49" shape="8369.21,3131.09 8368.19,3130.00"/>
    </edge>
    <edge id=":1110091506_4" function="internal">
        <lane id=":1110091506_4_0" index="0" speed="13.89" length="6.58" shape="8367.76,3130.33 8367.06,3128.90 8367.09,3126.79 8367.86,3124.02"/>
    </edge>
    <edge id=":1110091506_5" function="internal">
        <lane id=":1110091506_5_0" index="0" speed="13.89" length="3.33" shape="8368.19,3130.00 8367.97,3129.11 8368.56,3128.40 8369.95,3127.87"/>
    </edge>
    <edge id=":1110091506_2" function="internal">
        <lane id=":1110091506_2_0" index="0" disallow="tram rail_urban rail rail_electric ship" speed="13.89" length="9.55" shape="8364.58,3132.98 8367.86,3124.02"/>
    </edge>
    <edge id=":1110091506_3" function="internal">
        <lane id=":1110091506_3_0" index="0" disallow="tram rail_urban rail rail_electric ship" speed="13.89" length="8.08" shape="8364.58,3132.98 8365.72,3130.47 8367.00,3128.78 8368.41,3127.91 8369.95,3127.87"/>
    </edge>
    <edge id=":1110091958_0" function="internal">
        <lane id=":1110091958_0_0" index="0" disallow="tram rail_urban rail rail_electric ship" speed="22.22" length="6.20" shape="8222.69,4471.24 8216.78,4469.35"/>
    </edge>
    <edge id=":1110091958_1" function="internal">
        <lane id=":1110091958_1_0" index="0" disallow="tram rail_urban rail rail_electric ship" speed="22.22" length="2.83" shape="8222.69,4471.24 8221.65,4470.48 8221.12,4469.03"/>
    </edge>
    <edge id=":1110091958_2" function="internal">
        <lane id=":1110091958_2_0" index="0" disallow="tram rail_urban rail rail_electric ship" speed="22.22" length="2.41" shape="8222.69,4471.24 8221.76,4470.08 8221.62,4469.17"/>
    </edge>
    <edge id=":1110091958_6" function="internal">
        <lane id=":1110091958_6_0" index="0" speed="22.22" length="5.03" shape="8221.12,4469.03 8221.11,4466.88 8221.60,4464.05"/>
    </edge>
    <edge id=":1110091958_7" function="internal">
        <lane id=":1110091958_7_0" index="0" speed="22.22" length="2.41" shape="8221.62,4469.17 8222.26,4468.51 8223.69,4468.10"/>
    </edge>
    <edge id=":1110091958_3" function="internal">
        <lane id=":1110091958_3_0" index="0" disallow="tram rail_urban rail rail_electric ship" speed="22.22" length="5.10" shape="8217.78,4466.21 8219.17,4466.44 8220.27,4466.16 8221.08,4465.36 8221.60,4464.05"/>
    </edge>
    <edge id=":1110091958_4" function="internal">
        <lane id=":1110091958_4_0" index="0" disallow="tram rail_urban rail rail_electric ship" speed="22.22" length="6.21" shape="8217.78,4466.21 8223.69,4468.10"/>
    </edge>
    <edge id=":1110091958_5" function="internal">
        <lane id=":1110091958_5_0" index="0" disallow="tram rail_urban rail rail_electric ship" speed="22.22" length="2.41" shape="8217.78,4466.21 8218.71,4467.37 8218.85,4468.28"/>
    </edge>
    <edge id=":1110091958_8" function="internal">
        <lane id=":1110091958_8_0" index="0" speed="22.22" length="2.41" shape="8218.85,4468.28 8218.21,4468.94 8216.78,4469.35"/>
    </edge>
    <edge id=":1110091959_0" function="internal">
        <lane id=":1110091959_0_0" index="0" disallow="tram rail_urban rail rail_electric ship" speed="22.22" length="6.24" shape="8538.97,4572.70 8533.02,4570.80"/>
    </edge>
    <edge id=":1110091959_1" function="internal">
        <lane id=":1110091959_1_0" index="0" disallow="tram rail_urban rail rail_electric ship" speed="22.22" length="2.41" shape="8538.97,4572.70 8538.04,4571.54 8537.90,4570.63"/>
    </edge>
    <edge id=":1110091959_6" function="internal">
        <lane id=":1110091959_6_0" index="0" speed="22.22" length="2.41" shape="8537.90,4570.63 8538.54,4569.97 8539.97,4569.56"/>
    </edge>
    <edge id=":1110091959_2" function="internal">
        <lane id=":1110091959_2_0" index="0" disallow="tram rail_urban rail rail_electric ship" speed="22.22" length="5.23" shape="8537.77,4565.37 8537.70,4566.87 8538.05,4568.07 8538.80,4568.97 8539.97,4569.56"/>
    </edge>
    <edge id=":1110091959_3" function="internal">
        <lane id=":1110091959_3_0" index="0" disallow="tram rail_urban rail rail_electric ship" speed="22.22" length="8.29" shape="8537.77,4565.37 8537.06,4568.19 8536.04,4570.03 8534.69,4570.90 8533.02,4570.80"/>
    </edge>
    <edge id=":1110091959_4" function="internal">
        <lane id=":1110091959_4_0" index="0" disallow="tram rail_urban rail rail_electric ship" speed="22.22" length="6.24" shape="8534.03,4567.66 8539.97,4569.56"/>
    </edge>
    <edge id=":1110091959_5" function="internal">
        <lane id=":1110091959_5_0" index="0" disallow="tram rail_urban rail rail_electric ship" speed="22.22" length="2.41" shape="8534.03,4567.66 8534.96,4568.82 8535.10,4569.73"/>
    </edge>
    <edge id=":1110091959_7" function="internal">
        <lane id=":1110091959_7_0" index="0" speed="22.22" length="2.41" shape="8535.10,4569.73 8534.45,4570.39 8533.02,4570.80"/>
    </edge>
    <edge id=":1159926279_0" function="internal">
        <lane id=":1159926279_0_0" index="0" disallow="tram rail_urban rail rail_electric ship" speed="27.78" length="4.82" shape="10080.41,2090.12 10081.77,2089.54 10082.69,2089.64 10083.15,2090.44 10083.17,2091.93"/>
    </edge>
    <edge id=":1159926339_0" function="internal">
        <lane id=":1159926339_0_0" index="0" allow="delivery bicycle pedestrian" speed="5.56" length="8.68" shape="9962.63,2676.23 9954.05,2674.96"/>
    </edge>
    <edge id=":1159926339_1" function="internal">
        <lane id=":1159926339_1_0" index="0" disallow="tram rail_urban rail rail_electric ship" speed="16.67" length="7.34" shape="9962.63,2676.23 9961.76,2675.70 9961.25,2674.40 9961.12,2672.33 9961.35,2669.49"/>
    </edge>
    <edge id=":1159926339_2" function="internal">
        <lane id=":1159926339_2_0" index="0" allow="delivery bicycle pedestrian" speed="5.56" length="4.82" shape="9962.63,2676.23 9961.52,2675.24 9961.22,2674.37 9961.74,2673.61 9963.07,2672.96"/>
    </edge>
    <edge id=":1159926339_3" function="internal">
        <lane id=":1159926339_3_0" index="0" disallow="tram rail_urban rail rail_electric ship" speed="16.67" length="5.04" shape="9954.57,2671.70 9955.95,2671.72 9957.00,2671.29 9957.70,2670.40 9958.07,2669.07"/>
    </edge>
    <edge id=":1159926339_4" function="internal">
        <lane id=":1159926339_4_0" index="0" allow="delivery bicycle pedestrian" speed="5.56" length="8.60" shape="9954.57,2671.70 9963.07,2672.96"/>
    </edge>
    <edge id=":1159926339_5" function="internal">
        <lane id=":1159926339_5_0" index="0" allow="delivery bicycle pedestrian" speed="5.56" length="4.82" shape="9954.57,2671.70 9955.66,2672.71 9955.94,2673.59 9955.40,2674.34 9954.05,2674.96"/>
    </edge>
    <edge id=":1159926339_6" function="internal">
        <lane id=":1159926339_6_0" index="0" allow="delivery bicycle pedestrian" speed="16.67" length="5.22" shape="9956.86,2678.62 9956.83,2677.21 9956.36,2676.13 9955.43,2675.38 9954.05,2674.96"/>
    </edge>
    <edge id=":1159926339_7" function="internal">
        <lane id=":1159926339_7_0" index="0" disallow="tram rail_urban rail rail_electric ship" speed="27.78" length="9.62" shape="9956.86,2678.62 9958.07,2669.07"/>
        <lane id=":1159926339_7_1" index="1" disallow="tram rail_urban rail rail_electric ship" speed="27.78" length="9.62" shape="9960.13,2679.03 9961.35,2669.49"/>
    </edge>
    <edge id=":1159926339_9" function="internal">
        <lane id=":1159926339_9_0" index="0" allow="delivery bicycle pedestrian" speed="16.67" length="7.24" shape="9960.13,2679.03 9960.62,2676.27 9961.27,2674.33 9962.09,2673.23 9963.07,2672.96"/>
    </edge>
    <edge id=":1159926354_0" function="internal">
        <lane id=":1159926354_0_0" index="0" allow="delivery bicycle pedestrian" speed="5.56" length="5.03" shape="9634.60,2624.46 9633.22,2624.44 9632.16,2624.86 9631.43,2625.73 9631.03,2627.04"/>
    </edge>
    <edge id=":1159926354_1" function="internal">
        <lane id=":1159926354_1_0" index="0" allow="delivery bicycle pedestrian" speed="5.56" length="10.39" shape="9634.60,2624.46 9631.88,2623.62 9630.08,2622.11 9629.23,2619.93 9629.31,2617.07"/>
    </edge>
    <edge id=":1159926354_2" function="internal">
        <lane id=":1159926354_2_0" index="0" allow="delivery bicycle pedestrian" speed="5.56" length="4.82" shape="9634.60,2624.46 9633.51,2623.45 9633.23,2622.57 9633.77,2621.82 9635.12,2621.20"/>
    </edge>
    <edge id=":1159926354_3" function="internal">
        <lane id=":1159926354_3_0" index="0" allow="delivery bicycle pedestrian" speed="5.56" length="5.02" shape="9632.56,2617.63 9632.52,2619.01 9632.94,2620.06 9633.80,2620.79 9635.12,2621.20"/>
    </edge>
    <edge id=":1159926354_4" function="internal">
        <lane id=":1159926354_4_0" index="0" allow="delivery bicycle pedestrian" speed="5.56" length="9.53" shape="9632.56,2617.63 9631.03,2627.04"/>
    </edge>
    <edge id=":1159926354_5" function="internal">
        <lane id=":1159926354_5_0" index="0" allow="delivery bicycle pedestrian" speed="5.56" length="4.82" shape="9632.56,2617.63 9631.54,2618.71 9630.66,2618.98 9629.91,2618.43 9629.31,2617.07"/>
    </edge>
    <edge id=":1159926354_6" function="internal">
        <lane id=":1159926354_6_0" index="0" allow="delivery bicycle pedestrian" speed="5.56" length="9.59" shape="9627.77,2626.54 9629.31,2617.07"/>
    </edge>
    <edge id=":1159926354_7" function="internal">
        <lane id=":1159926354_7_0" index="0" allow="delivery bicycle pedestrian" speed="5.56" length="10.37" shape="9627.77,2626.54 9628.59,2623.82 9630.09,2622.03 9632.27,2621.16 9635.12,2621.20"/>
    </edge>
    <edge id=":1159926354_8" function="internal">
        <lane id=":1159926354_8_0" index="0" allow="delivery bicycle pedestrian" speed="5.56" length="4.82" shape="9627.77,2626.54 9628.77,2625.44 9629.65,2625.16 9630.40,2625.69 9631.03,2627.04"/>
    </edge>
    <edge id=":1159926386_0" function="internal">
        <lane id=":1159926386_0_0" index="0" allow="delivery bicycle pedestrian" speed="5.56" length="4.82" shape="9659.53,2441.87 9660.56,2440.79 9661.44,2440.52 9662.18,2441.07 9662.78,2442.43"/>
    </edge>
    <edge id=":1159926393_0" function="internal">
        <lane id=":1159926393_0_0" index="0" allow="delivery bicycle pedestrian" speed="5.56" length="9.50" shape="9622.88,2699.80 9613.52,2698.21"/>
    </edge>
    <edge id=":1159926393_1" function="internal">
        <lane id=":1159926393_1_0" index="0" allow="delivery bicycle pedestrian" speed="5.56" length="10.32" shape="9622.88,2699.80 9620.22,2698.94 9618.45,2697.42 9617.59,2695.23 9617.62,2692.39"/>
    </edge>
    <edge id=":1159926393_2" function="internal">
        <lane id=":1159926393_2_0" index="0" allow="delivery bicycle pedestrian" speed="5.56" length="4.82" shape="9622.88,2699.80 9621.80,2698.78 9621.53,2697.89 9622.08,2697.15 9623.43,2696.54"/>
    </edge>
    <edge id=":1159926393_3" function="internal">
        <lane id=":1159926393_3_0" index="0" allow="delivery bicycle pedestrian" speed="5.56" length="5.06" shape="9620.88,2692.89 9620.86,2694.30 9621.28,2695.37 9622.14,2696.12 9623.43,2696.54"/>
    </edge>
    <edge id=":1159926393_4" function="internal">
        <lane id=":1159926393_4_0" index="0" allow="delivery bicycle pedestrian" speed="5.56" length="10.40" shape="9620.88,2692.89 9620.05,2695.62 9618.55,2697.42 9616.37,2698.28 9613.52,2698.21"/>
    </edge>
    <edge id=":1159926393_5" function="internal">
        <lane id=":1159926393_5_0" index="0" allow="delivery bicycle pedestrian" speed="5.56" length="4.82" shape="9620.88,2692.89 9619.88,2693.99 9619.00,2694.27 9618.25,2693.74 9617.62,2692.39"/>
    </edge>
    <edge id=":1159926393_6" function="internal">
        <lane id=":1159926393_6_0" index="0" allow="delivery bicycle pedestrian" speed="5.56" length="5.02" shape="9614.07,2694.96 9615.44,2694.99 9616.50,2694.58 9617.22,2693.71 9617.62,2692.39"/>
    </edge>
    <edge id=":1159926393_7" function="internal">
        <lane id=":1159926393_7_0" index="0" allow="delivery bicycle pedestrian" speed="5.56" length="9.50" shape="9614.07,2694.96 9623.43,2696.54"/>
    </edge>
    <edge id=":1159926393_8" function="internal">
        <lane id=":1159926393_8_0" index="0" allow="delivery bicycle pedestrian" speed="5.56" length="4.82" shape="9614.07,2694.96 9615.15,2695.98 9615.42,2696.86 9614.87,2697.60 9613.52,2698.21"/>
    </edge>
    <edge id=":1159926407_0" function="internal">
        <lane id=":1159926407_0_0" index="0" allow="delivery bicycle pedestrian" speed="5.56" length="9.84" shape="9851.28,2735.76 9841.53,2734.45"/>
    </edge>
    <edge id=":1159926407_1" function="internal">
        <lane id=":1159926407_1_0" index="0" allow="delivery bicycle pedestrian" speed="5.56" length="10.53" shape="9851.28,2735.76 9848.46,2735.07 9846.58,2733.64 9845.63,2731.47 9845.63,2728.57"/>
    </edge>
    <edge id=":1159926407_2" function="internal">
        <lane id=":1159926407_2_0" index="0" allow="delivery bicycle pedestrian" speed="5.56" length="4.82" shape="9851.28,2735.76 9850.13,2734.82 9849.80,2733.96 9850.29,2733.18 9851.60,2732.48"/>
    </edge>
    <edge id=":1159926407_3" function="internal">
        <lane id=":1159926407_3_0" index="0" allow="delivery bicycle pedestrian" speed="5.56" length="5.05" shape="9848.89,2729.03 9848.90,2730.42 9849.35,2731.46 9850.25,2732.15 9851.60,2732.48"/>
    </edge>
    <edge id=":1159926407_4" function="internal">
        <lane id=":1159926407_4_0" index="0" allow="delivery bicycle pedestrian" speed="5.56" length="10.50" shape="9848.89,2729.03 9848.09,2731.81 9846.59,2733.65 9844.41,2734.52 9841.53,2734.45"/>
    </edge>
    <edge id=":1159926407_5" function="internal">
        <lane id=":1159926407_5_0" index="0" allow="delivery bicycle pedestrian" speed="5.56" length="4.82" shape="9848.89,2729.03 9847.91,2730.14 9847.03,2730.44 9846.27,2729.91 9845.63,2728.57"/>
    </edge>
    <edge id=":1159926407_6" function="internal">
        <lane id=":1159926407_6_0" index="0" allow="delivery bicycle pedestrian" speed="5.56" length="5.07" shape="9842.08,2731.20 9843.47,2731.23 9844.52,2730.81 9845.24,2729.92 9845.63,2728.57"/>
    </edge>
    <edge id=":1159926407_7" function="internal">
        <lane id=":1159926407_7_0" index="0" allow="delivery bicycle pedestrian" speed="5.56" length="9.61" shape="9842.08,2731.20 9851.60,2732.48"/>
    </edge>
    <edge id=":1159926407_8" function="internal">
        <lane id=":1159926407_8_0" index="0" allow="delivery bicycle pedestrian" speed="5.56" length="4.82" shape="9842.08,2731.20 9843.16,2732.22 9843.43,2733.10 9842.88,2733.84 9841.53,2734.45"/>
    </edge>
    <edge id=":1159926412_0" function="internal">
        <lane id=":1159926412_0_0" index="0" allow="delivery bicycle pedestrian" speed="5.56" length="4.82" shape="9524.82,2683.20 9523.73,2682.18 9523.47,2681.30 9524.01,2680.55 9525.37,2679.95"/>
    </edge>
    <edge id=":1159926465_0" function="internal">
        <lane id=":1159926465_0_0" index="0" allow="delivery bicycle pedestrian" speed="5.56" length="4.82" shape="9876.52,2494.21 9877.50,2493.08 9878.37,2492.78 9879.14,2493.29 9879.80,2494.62"/>
    </edge>
    <edge id=":1159926492_0" function="internal">
        <lane id=":1159926492_0_0" index="0" allow="delivery bicycle pedestrian" speed="5.56" length="4.82" shape="9932.58,2740.55 9933.73,2741.49 9934.05,2742.35 9933.56,2743.13 9932.25,2743.83"/>
    </edge>
    <edge id=":1159926498_0" function="internal">
        <lane id=":1159926498_0_0" index="0" allow="delivery bicycle pedestrian" speed="5.56" length="5.02" shape="9861.71,2660.36 9860.33,2660.34 9859.29,2660.77 9858.57,2661.65 9858.19,2662.97"/>
    </edge>
    <edge id=":1159926498_1" function="internal">
        <lane id=":1159926498_1_0" index="0" allow="delivery bicycle pedestrian" speed="5.56" length="9.65" shape="9861.71,2660.36 9852.18,2658.86"/>
    </edge>
    <edge id=":1159926498_2" function="internal">
        <lane id=":1159926498_2_0" index="0" allow="delivery bicycle pedestrian" speed="5.56" length="10.45" shape="9861.71,2660.36 9858.99,2659.53 9857.17,2658.01 9856.24,2655.83 9856.20,2652.97"/>
    </edge>
    <edge id=":1159926498_3" function="internal">