<net xmlns:xsi="http://www.w3.org/2001/XMLSchema-instance" version="0.27" xsi:noNamespaceSchemaLocation="http://sumo.dlr.de/xsd/net_file.xsd">

    <location convBoundary="0.00,0.00,7197.99,5399.85" netOffset="-343323.47,-3447798.35" origBoundary="121.310797,31.138008,121.682872,31.274281" projParameter="+proj=utm +zone=51 +ellps=WGS84 +datum=WGS84 +units=m +no_defs" />

    <type allow="pedestrian" id="highway.bridleway" numLanes="1" oneway="1" priority="1" speed="2.78" width="2.00" />
    <type allow="bus" id="highway.bus_guideway" numLanes="1" oneway="1" priority="1" speed="8.33" />
    <type allow="bicycle" id="highway.cycleway" numLanes="1" oneway="0" priority="1" speed="5.56" width="1.00" />
    <type allow="pedestrian" id="highway.footway" numLanes="1" oneway="1" priority="1" speed="2.78" width="2.00" />
    <type allow="army" id="highway.ford" numLanes="1" oneway="0" priority="1" speed="2.78" />
    <type disallow="tram rail_urban rail rail_electric ship" id="highway.living_street" numLanes="1" oneway="0" priority="3" speed="2.78" />
    <type allow="private emergency authority army vip passenger hov taxi bus coach delivery truck trailer motorcycle evehicle custom1 custom2" id="highway.motorway" numLanes="2" oneway="1" priority="13" speed="44.44" />
    <type allow="private emergency authority army vip passenger hov taxi bus coach delivery truck trailer motorcycle evehicle custom1 custom2" id="highway.motorway_link" numLanes="1" oneway="1" priority="12" speed="22.22" />
    <type allow="bicycle pedestrian" id="highway.path" numLanes="1" oneway="1" priority="1" speed="2.78" width="2.00" />
    <type allow="pedestrian" id="highway.pedestrian" numLanes="1" oneway="1" priority="1" speed="2.78" width="2.00" />
    <type disallow="tram rail_urban rail rail_electric ship" id="highway.primary" numLanes="2" oneway="0" priority="9" speed="27.78" />
    <type disallow="tram rail_urban rail rail_electric ship" id="highway.primary_link" numLanes="1" oneway="0" priority="8" speed="22.22" />
    <type allow="vip" id="highway.raceway" numLanes="2" oneway="0" priority="14" speed="83.33" />
    <type disallow="tram rail_urban rail rail_electric ship" id="highway.residential" numLanes="1" oneway="0" priority="4" speed="13.89" />
    <type disallow="tram rail_urban rail rail_electric ship" id="highway.secondary" numLanes="2" oneway="0" priority="7" speed="27.78" />
    <type disallow="tram rail_urban rail rail_electric ship" id="highway.secondary_link" numLanes="1" oneway="0" priority="6" speed="22.22" />
    <type allow="delivery bicycle pedestrian" id="highway.service" numLanes="1" oneway="0" priority="2" speed="5.56" />
    <type disallow="tram rail_urban rail rail_electric ship" id="highway.services" numLanes="1" oneway="0" priority="1" speed="8.33" />
    <type allow="pedestrian" id="highway.stairs" numLanes="1" oneway="1" priority="1" speed="1.39" width="2.00" />
    <type allow="pedestrian" id="highway.step" numLanes="1" oneway="1" priority="1" speed="1.39" width="2.00" />
    <type allow="pedestrian" id="highway.steps" numLanes="1" oneway="1" priority="1" speed="1.39" width="2.00" />
    <type disallow="tram rail_urban rail rail_electric ship" id="highway.tertiary" numLanes="1" oneway="0" priority="6" speed="22.22" />
    <type disallow="tram rail_urban rail rail_electric ship" id="highway.tertiary_link" numLanes="1" oneway="0" priority="5" speed="22.22" />
    <type disallow="tram rail_urban rail rail_electric ship" id="highway.track" numLanes="1" oneway="0" priority="1" speed="5.56" />
    <type disallow="tram rail_urban rail rail_electric bicycle pedestrian ship" id="highway.trunk" numLanes="2" oneway="0" priority="11" speed="27.78" />
    <type disallow="tram rail_urban rail rail_electric bicycle pedestrian ship" id="highway.trunk_link" numLanes="1" oneway="0" priority="10" speed="22.22" />
    <type disallow="tram rail_urban rail rail_electric ship" id="highway.unclassified" numLanes="1" oneway="0" priority="5" speed="13.89" />
    <type disallow="tram rail_urban rail rail_electric ship" id="highway.unsurfaced" numLanes="1" oneway="0" priority="1" speed="8.33" />
    <type allow="rail_urban" id="railway.light_rail" numLanes="1" oneway="1" priority="15" speed="27.78" />
    <type allow="rail" id="railway.preserved" numLanes="1" oneway="1" priority="15" speed="27.78" />
    <type allow="rail rail_electric" id="railway.rail" numLanes="1" oneway="1" priority="15" speed="83.33" />
    <type allow="rail_urban" id="railway.subway" numLanes="1" oneway="1" priority="15" speed="27.78" />
    <type allow="tram" id="railway.tram" numLanes="1" oneway="1" priority="15" speed="13.89" />

    <edge Region="R3" from="1159926556" id="-100323308#0" priority="7" shape="5606.92,1001.74 5651.24,642.14 5652.81,632.91 5664.00,548.81 5674.48,506.77 5687.88,464.36 5718.62,417.20" to="1159926279" type="highway.secondary">
        <lane disallow="tram rail_urban rail rail_electric ship" id="-100323308#0_0" index="0" length="600.62" shape="5602.03,1000.99 5646.34,641.42 5647.92,632.17 5659.13,547.88 5669.71,505.42 5683.36,462.22 5714.47,414.50" speed="27.78" />
        <lane disallow="tram rail_urban rail rail_electric ship" id="-100323308#0_1" index="1" length="600.62" shape="5605.30,1001.39 5649.61,641.90 5651.18,632.66 5662.38,548.50 5672.89,506.32 5686.37,463.65 5717.24,416.30" speed="27.78" />
    </edge>
    <edge Region="R3" from="461717823" id="-100323308#1" priority="7" to="1159926556" type="highway.secondary">
        <lane disallow="tram rail_urban rail rail_electric ship" id="-100323308#1_0" index="0" length="132.35" shape="5586.06,1126.92 5601.99,1001.27" speed="27.78" />
        <lane disallow="tram rail_urban rail rail_electric ship" id="-100323308#1_1" index="1" length="132.35" shape="5589.33,1127.34 5605.26,1001.68" speed="27.78" />
    </edge>
    <edge Region="R1" from="2389906350" id="-100323308#10" priority="7" shape="5147.80,3051.43 5154.79,2984.88 5189.37,2829.69 5209.75,2759.75" to="822481042" type="highway.secondary">
        <lane disallow="tram rail_urban rail rail_electric ship" id="-100323308#10_0" index="0" length="298.76" shape="5143.74,3042.71 5149.90,2984.08 5184.57,2828.46 5203.51,2763.48" speed="27.78" />
        <lane disallow="tram rail_urban rail rail_electric ship" id="-100323308#10_1" index="1" length="298.76" shape="5147.02,3043.05 5153.16,2984.61 5187.77,2829.28 5206.68,2764.40" speed="27.78" />
    </edge>
    <edge Region="R1" from="R1_Junction3" id="-100323308#11" priority="7" shape="5139.99,3127.01 5143.99,3087.61 5147.80,3051.43" to="2389906350" type="highway.secondary">
        <lane disallow="tram rail_urban rail rail_electric ship" id="-100323308#11_0" index="0" length="75.98" shape="5135.67,3120.55 5139.07,3087.10 5142.67,3052.86" speed="27.78" />
        <lane disallow="tram rail_urban rail rail_electric ship" id="-100323308#11_1" index="1" length="75.98" shape="5138.95,3120.88 5142.35,3087.44 5145.95,3053.21" speed="27.78" />
    </edge>
    <edge Region="R1" from="856926217" id="-100323308#12" priority="7" shape="5122.83,3271.75 5133.68,3172.76 5139.99,3127.01" to="R1_Junction3" type="highway.secondary">
        <lane disallow="tram rail_urban rail rail_electric ship" id="-100323308#12_0" index="0" length="145.77" shape="5117.91,3271.21 5128.77,3172.15 5134.23,3132.52" speed="27.78" />
        <lane disallow="tram rail_urban rail rail_electric ship" id="-100323308#12_1" index="1" length="145.77" shape="5121.19,3271.57 5132.04,3172.56 5137.50,3132.97" speed="27.78" />
    </edge>
    <edge Region="R3" from="2390600695" id="-100323308#2" priority="7" to="461717823" type="highway.secondary">
        <lane disallow="tram rail_urban rail rail_electric ship" id="-100323308#2_0" index="0" length="199.58" shape="5559.29,1322.39 5584.62,1137.83" speed="27.78" />
        <lane disallow="tram rail_urban rail rail_electric ship" id="-100323308#2_1" index="1" length="199.58" shape="5562.56,1322.83 5587.89,1138.28" speed="27.78" />
    </edge>
    <edge Region="R3" from="R3_Junction6" id="-100323308#3" priority="7" shape="5528.40,1580.48 5563.14,1330.77" to="2390600695" type="highway.secondary">
        <lane disallow="tram rail_urban rail rail_electric ship" id="-100323308#3_0" index="0" length="257.43" shape="5524.41,1573.26 5557.26,1337.13" speed="27.78" />
        <lane disallow="tram rail_urban rail rail_electric ship" id="-100323308#3_1" index="1" length="257.43" shape="5527.68,1573.69 5560.53,1337.58" speed="27.78" />
    </edge>
    <edge Region="R3" from="R3_Junction1" id="-100323308#5" priority="7" shape="5445.99,1989.67 5473.37,1891.86 5496.74,1793.50 5514.69,1693.72 5526.90,1589.81" to="R3_Junction6" type="highway.secondary">
        <lane disallow="tram rail_urban rail rail_electric ship" id="-100323308#5_0" index="0" length="415.77" shape="5442.62,1983.34 5468.58,1890.62 5491.89,1792.49 5509.79,1692.99 5521.04,1597.28" speed="27.78" />
        <lane disallow="tram rail_urban rail rail_electric ship" id="-100323308#5_1" index="1" length="415.77" shape="5445.80,1984.23 5471.77,1891.45 5495.12,1793.16 5513.06,1693.48 5524.32,1597.67" speed="27.78" />
    </edge>
    <edge Region="R3" from="5240900714" id="-100323308#6" priority="7" shape="5330.28,2359.93 5445.99,1989.67" to="R3_Junction1" type="highway.secondary">
        <lane disallow="tram rail_urban rail rail_electric ship" id="-100323308#6_0" index="0" length="388.79" shape="5325.60,2358.32 5439.61,1993.50" speed="27.78" />
        <lane disallow="tram rail_urban rail rail_electric ship" id="-100323308#6_1" index="1" length="388.79" shape="5328.75,2359.30 5442.76,1994.48" speed="27.78" />
    </edge>
    <edge Region="R1" from="5240900708" id="-100323308#7" priority="7" to="5240900714" type="highway.secondary">
        <lane disallow="tram rail_urban rail rail_electric ship" id="-100323308#7_0" index="0" length="15.87" shape="5321.07,2373.61 5325.49,2358.66" speed="27.78" />
        <lane disallow="tram rail_urban rail rail_electric ship" id="-100323308#7_1" index="1" length="15.87" shape="5324.24,2374.55 5328.66,2359.60" speed="27.78" />
    </edge>
    <edge Region="R1" from="R1_Junction7" id="-100323308#8" priority="7" shape="5309.12,2427.64 5325.78,2375.15" to="5240900708" type="highway.secondary">
        <lane disallow="tram rail_urban rail rail_electric ship" id="-100323308#8_0" index="0" length="56.67" shape="5305.71,2422.02 5321.02,2373.79" speed="27.78" />
        <lane disallow="tram rail_urban rail rail_electric ship" id="-100323308#8_1" index="1" length="56.67" shape="5308.85,2423.02 5324.16,2374.78" speed="27.78" />
    </edge>
    <edge Region="R1" from="822481042" id="-100323308#9" priority="7" shape="5209.75,2759.75 5309.12,2427.64" to="R1_Junction7" type="highway.secondary">
        <lane disallow="tram rail_urban rail rail_electric ship" id="-100323308#9_0" index="0" length="347.49" shape="5206.20,2754.35 5302.51,2432.47" speed="27.78" />
        <lane disallow="tram rail_urban rail rail_electric ship" id="-100323308#9_1" index="1" length="347.49" shape="5209.36,2755.30 5305.67,2433.42" speed="27.78" />
    </edge>
    <edge Region="R2" from="4685856463" id="-131465613#0" priority="4" shape="6577.94,791.40 6443.73,745.76 6432.00,741.15 6421.47,736.32 6412.37,730.57 6403.93,723.95 6386.09,707.85 6357.24,678.53" to="2387518760" type="highway.residential">
        <lane disallow="tram rail_urban rail rail_electric ship" id="-131465613#0_0" index="0" length="252.60" shape="6577.41,792.96 6443.16,747.31 6431.35,742.67 6420.68,737.77 6411.42,731.92 6402.87,725.21 6384.95,709.04 6358.25,681.91" speed="13.89" />
    </edge>
    <edge Region="R2" from="461720887" id="-131465613#1" priority="4" to="4685856463" type="highway.residential">
        <lane disallow="tram rail_urban rail rail_electric ship" id="-131465613#1_0" index="0" length="176.31" shape="6738.87,847.89 6577.41,792.96" speed="13.89" />
    </edge>
    <edge Region="R1" from="1489304957" id="-135626758" priority="7" to="1489304965" type="highway.secondary">
        <lane disallow="tram rail_urban rail rail_electric ship" id="-135626758_0" index="0" length="24.99" shape="4337.45,2217.24 4314.74,2211.88" speed="27.78" />
        <lane disallow="tram rail_urban rail rail_electric ship" id="-135626758_1" index="1" length="24.99" shape="4338.21,2214.03 4315.50,2208.67" speed="27.78" />
    </edge>
    <edge Region="R1" from="1489304940" id="-135626760" priority="6" to="1489304948" type="highway.tertiary">
        <lane disallow="tram rail_urban rail rail_electric ship" id="-135626760_0" index="0" length="18.15" shape="4221.92,2913.57 4204.90,2908.16" speed="22.22" />
    </edge>
    <edge Region="R3" from="2389795324" id="-135626763#0" priority="6" to="1489304944" type="highway.tertiary">
        <lane disallow="tram rail_urban rail rail_electric ship" id="-135626763#0_0" index="0" length="107.41" shape="4508.08,1796.13 4407.77,1775.02" speed="22.22" />
    </edge>
    <edge Region="R3" from="R3_Junction3" id="-135626763#1" priority="6" to="2389795324" type="highway.tertiary">
        <lane disallow="tram rail_urban rail rail_electric ship" id="-135626763#1_0" index="0" length="267.48" shape="4769.66,1851.19 4517.41,1798.09" speed="22.22" />
    </edge>
    <edge Region="R3" from="2486682628" id="-135626767#0" priority="7" shape="3437.38,33.33 3442.03,16.22 3446.38,0.00" to="1489304917" type="highway.secondary">
        <lane disallow="tram rail_urban rail rail_electric ship" id="-135626767#0_0" index="0" length="34.52" shape="3432.64,31.89 3437.25,14.93 3441.60,-1.28" speed="27.78" />
        <lane disallow="tram rail_urban rail rail_electric ship" id="-135626767#0_1" index="1" length="34.52" shape="3435.83,32.75 3440.44,15.79 3444.79,-0.43" speed="27.78" />
    </edge>
    <edge Region="R3" from="2486682631" id="-135626767#1" priority="7" to="2486682628" type="highway.secondary">
        <lane disallow="tram rail_urban rail rail_electric ship" id="-135626767#1_0" index="0" length="9.62" shape="3430.11,41.16 3432.56,32.17" speed="27.78" />
        <lane disallow="tram rail_urban rail rail_electric ship" id="-135626767#1_1" index="1" length="9.62" shape="3433.30,42.03 3435.75,33.04" speed="27.78" />
    </edge>
    <edge Region="R3" from="R3_Junction11" id="-135626767#3" priority="7" shape="3221.54,814.18 3335.88,402.74" to="832430819" type="highway.secondary">
        <lane disallow="tram rail_urban rail rail_electric ship" id="-135626767#3_0" index="0" length="431.33" shape="3218.05,808.24 3331.07,401.56" speed="27.78" />
        <lane disallow="tram rail_urban rail rail_electric ship" id="-135626767#3_1" index="1" length="431.33" shape="3221.23,809.12 3334.25,402.44" speed="27.78" />
    </edge>
    <edge Region="R3" from="864665595" id="-135626767#5" priority="7" shape="3134.18,1128.42 3219.17,822.44" to="R3_Junction11" type="highway.secondary">
        <lane disallow="tram rail_urban rail rail_electric ship" id="-135626767#5_0" index="0" length="321.86" shape="3130.58,1122.89 3213.11,825.75" speed="27.78" />
        <lane disallow="tram rail_urban rail rail_electric ship" id="-135626767#5_1" index="1" length="321.86" shape="3133.76,1123.77 3216.29,826.63" speed="27.78" />
    </edge>
    <edge Region="R3" from="R3_Junction10" id="-135626767#6" priority="7" to="864665595" type="highway.secondary">
        <lane disallow="tram rail_urban rail rail_electric ship" id="-135626767#6_0" index="0" length="283.60" shape="3055.58,1395.59 3128.04,1132.08" speed="27.78" />
        <lane disallow="tram rail_urban rail rail_electric ship" id="-135626767#6_1" index="1" length="283.60" shape="3058.77,1396.46 3131.22,1132.96" speed="27.78" />
    </edge>
    <edge Region="R3" from="833830611" id="-135626767#7" priority="7" to="R3_Junction10" type="highway.secondary">
        <lane disallow="tram rail_urban rail rail_electric ship" id="-135626767#7_0" index="0" length="441.53" shape="2939.32,1818.96 3052.84,1405.56" speed="27.78" />
        <lane disallow="tram rail_urban rail rail_electric ship" id="-135626767#7_1" index="1" length="441.53" shape="2942.50,1819.83 3056.03,1406.44" speed="27.78" />
    </edge>
    <edge Region="R1" from="R1_Junction14" id="-135626769#0" priority="4" to="1489304951" type="highway.residential">
        <lane disallow="tram rail_urban rail rail_electric ship" id="-135626769#0_0" index="0" length="49.25" shape="4231.92,2564.80 4276.94,2573.71" speed="13.89" />
    </edge>
    <edge Region="R1" from="822481082" id="-135626769#1" priority="4" to="R1_Junction14" type="highway.residential">
        <lane disallow="tram rail_urban rail rail_electric ship" id="-135626769#1_0" index="0" length="159.93" shape="4076.59,2533.94 4225.65,2563.56" speed="13.89" />
    </edge>
    <edge Region="R1" from="R1_Junction6" id="-135626769#2" priority="4" to="822481082" type="highway.residential">
        <lane disallow="tram rail_urban rail rail_electric ship" id="-135626769#2_0" index="0" length="149.50" shape="3928.43,2504.50 4067.26,2532.08" speed="13.89" />
    </edge>
    <edge Region="R1" from="R1_Junction18" id="-135626769#3" priority="4" to="R1_Junction6" type="highway.residential">
        <lane disallow="tram rail_urban rail rail_electric ship" id="-135626769#3_0" index="0" length="291.68" shape="3643.02,2450.01 3922.10,2503.26" speed="13.89" />
    </edge>
    <edge Region="R1" from="1489304951" id="-135626782" priority="4" to="1489304920" type="highway.residential">
        <lane disallow="tram rail_urban rail rail_electric ship" id="-135626782_0" index="0" length="31.72" shape="4277.24,2573.77 4308.06,2579.85" speed="13.89" />
    </edge>
    <edge Region="R3" from="1489304944" id="-135626787" priority="6" to="1489304970" type="highway.tertiary">
        <lane disallow="tram rail_urban rail rail_electric ship" id="-135626787_0" index="0" length="25.21" shape="4407.48,1774.95 4383.09,1769.85" speed="22.22" />
    </edge>
    <edge Region="R1" from="2597891877" id="DestinationW7" priority="6" to="2387615854" type="highway.tertiary">
        <lane disallow="tram rail_urban rail rail_electric ship" id="DestinationW7_0" index="0" length="130.91" shape="3549.26,2698.44 3433.82,2661.62" speed="22.22" />
    </edge>
    <edge Region="R1" from="1110091958" id="-135626788#1" priority="6" to="2597891877" type="highway.tertiary">
        <lane disallow="tram rail_urban rail rail_electric ship" id="-135626788#1_0" index="0" length="318.13" shape="3853.60,2795.53 3558.31,2701.32" speed="22.22" />
    </edge>
    <edge Region="R1" from="1110091959" id="-135626788#2" priority="6" shape="4173.78,2896.50 4000.25,2840.83 3857.31,2794.98" to="1110091958" type="highway.tertiary">
        <lane disallow="tram rail_urban rail rail_electric ship" id="-135626788#2_0" index="0" length="332.35" shape="4169.85,2896.97 3999.75,2842.40 3859.51,2797.42" speed="22.22" />
    </edge>
    <edge Region="R1" from="1489304948" id="-135626788#3" priority="6" to="1110091959" type="highway.tertiary">
        <lane disallow="tram rail_urban rail rail_electric ship" id="-135626788#3_0" index="0" length="33.04" shape="4204.62,2908.07 4175.80,2898.87" speed="22.22" />
    </edge>
    <edge Region="R1" from="2387375099" id="-135626792#0" priority="7" to="1489304957" type="highway.secondary">
        <lane disallow="tram rail_urban rail rail_electric ship" id="-135626792#0_0" index="0" length="88.27" shape="4420.85,2233.52 4341.13,2214.72" speed="27.78" />
    </edge>
    <edge Region="R1" from="R1_Junction9" id="-135626792#1" priority="7" to="2387375099" type="highway.secondary">
        <lane disallow="tram rail_urban rail rail_electric ship" id="-135626792#1_0" index="0" length="240.82" shape="4655.42,2288.82 4430.10,2235.70" speed="27.78" />
    </edge>
    <edge Region="R1" from="R1_Junction8" id="-135626792#2" priority="7" to="R1_Junction9" type="highway.secondary">
        <lane disallow="tram rail_urban rail rail_electric ship" id="-135626792#2_0" index="0" length="282.45" shape="4933.02,2348.20 4664.87,2290.94" speed="27.78" />
    </edge>
    <edge Region="R1" from="5240900706" id="-135626792#3" priority="7" to="R1_Junction8" type="highway.secondary">
        <lane disallow="tram rail_urban rail rail_electric ship" id="-135626792#3_0" index="0" length="274.83" shape="5205.31,2404.23 4939.32,2349.52" speed="27.78" />
    </edge>
    <edge Region="R1" from="R1_Junction7" id="-135626792#4" priority="7" shape="5301.81,2425.85 5205.76,2402.64" to="5240900706" type="highway.secondary">
        <lane disallow="tram rail_urban rail rail_electric ship" id="-135626792#4_0" index="0" length="102.58" shape="5300.74,2427.29 5205.49,2404.27" speed="27.78" />
    </edge>
    <edge Region="R1" from="R2_Junction1" id="-135626792#6" priority="7" shape="5819.98,2576.17 5804.14,2567.35 5769.98,2550.34 5759.63,2544.74 5750.15,2539.05 5739.06,2532.97 5727.88,2527.29 5711.33,2519.93 5691.91,2512.20 5670.74,2504.98 5648.45,2498.41 5592.46,2484.24 5529.42,2469.75 5502.14,2464.02 5484.61,2461.31 5465.79,2459.39 5446.98,2458.92 5431.57,2459.29 5419.66,2458.73 5409.36,2457.86 5399.08,2455.68 5328.22,2436.61 5322.70,2434.63 5315.31,2431.38 5309.12,2427.64" to="R1_Junction7" type="highway.secondary">
        <lane disallow="tram rail_urban rail rail_electric ship" id="-135626792#6_0" index="0" length="541.08" shape="5814.86,2575.21 5803.37,2568.81 5769.22,2551.80 5758.81,2546.17 5749.33,2540.48 5738.29,2534.43 5727.17,2528.78 5710.69,2521.45 5691.34,2513.75 5670.24,2506.55 5648.01,2500.00 5592.07,2485.84 5529.07,2471.36 5501.84,2465.64 5484.40,2462.95 5465.69,2461.04 5446.98,2460.57 5431.55,2460.94 5419.55,2460.38 5409.12,2459.50 5398.69,2457.28 5327.73,2438.19 5322.09,2436.16 5316.16,2433.56" speed="27.78" />
    </edge>
    <edge Region="R2" from="267698354" id="-230239442" priority="6" to="2387615849" type="highway.tertiary">
        <lane disallow="tram rail_urban rail rail_electric ship" id="-230239442_0" index="0" length="42.74" shape="6684.03,2389.50 6723.18,2405.88" speed="22.22" />
    </edge>
    <edge Region="R2" from="R2_Junction6" id="-230239443#0" priority="6" to="267698354" type="highway.tertiary">
        <lane disallow="tram rail_urban rail rail_electric ship" id="-230239443#0_0" index="0" length="96.49" shape="6599.36,2353.88 6683.75,2389.38" speed="22.22" />
    </edge>
    <edge Region="R2" from="856925824" id="-230239443#1" priority="6" to="R2_Junction6" type="highway.tertiary">
        <lane disallow="tram rail_urban rail rail_electric ship" id="-230239443#1_0" index="0" length="366.36" shape="6262.64,2209.64 6590.48,2350.12" speed="22.22" />
    </edge>
    <edge Region="R2" from="R2_Junction2" id="-230239443#2" priority="6" to="856925824" type="highway.tertiary">
        <lane disallow="tram rail_urban rail rail_electric ship" id="-230239443#2_0" index="0" length="236.74" shape="6045.75,2115.30 6253.94,2205.89" speed="22.22" />
    </edge>
    <edge Region="R2" from="2387615857" id="-230239444" priority="4" to="2387615855" type="highway.residential">
        <lane disallow="tram rail_urban rail rail_electric ship" id="-230239444_0" index="0" length="28.28" shape="6557.31,2712.90 6531.34,2702.09" speed="13.89" />
    </edge>
    <edge Region="R2" from="267698362" id="-230239445#0" priority="4" to="2387615857" type="highway.residential">
        <lane disallow="tram rail_urban rail rail_electric ship" id="-230239445#0_0" index="0" length="12.27" shape="6564.91,2716.02 6557.59,2713.01" speed="13.89" />
    </edge>
    <edge Region="R2" from="4375169580" id="-230239445#2" priority="4" shape="7063.50,2911.09 7049.07,2909.39 7037.28,2906.46 7026.86,2903.09 7014.73,2898.55 7003.67,2893.40 6991.66,2887.13 6982.65,2881.03 6973.39,2873.49 6958.62,2860.67 6943.85,2847.84 6934.86,2840.38 6923.94,2832.94 6905.37,2821.64 6885.70,2813.03 6865.14,2806.53 6842.19,2802.03 6817.24,2798.88" to="2387615862" type="highway.residential">
        <lane disallow="tram rail_urban rail rail_electric ship" id="-230239445#2_0" index="0" length="276.48" shape="7063.31,2912.73 7048.77,2911.02 7036.83,2908.05 7026.32,2904.65 7014.09,2900.07 7002.94,2894.88 6990.81,2888.55 6981.66,2882.36 6972.33,2874.75 6957.54,2861.92 6942.78,2849.10 6933.87,2841.70 6923.05,2834.33 6904.61,2823.11 6885.12,2814.58 6864.73,2808.13 6841.93,2803.66 6817.18,2800.54" speed="13.89" />
    </edge>
    <edge Region="R3" from="479978563" id="-230239447" priority="7" to="479978564" type="highway.secondary">
        <lane disallow="tram rail_urban rail rail_electric ship" id="-230239447_0" index="0" length="25.91" shape="4944.00,1182.58 4937.51,1207.37" speed="27.78" />
        <lane disallow="tram rail_urban rail rail_electric ship" id="-230239447_1" index="1" length="25.91" shape="4940.81,1181.75 4934.32,1206.54" speed="27.78" />
    </edge>
    <edge Region="R3" from="2389906342" id="-230239448#0" priority="7" shape="4969.12,1011.23 4952.27,1121.81 4948.52,1142.24 4944.39,1160.33 4939.25,1181.19" to="479978563" type="highway.secondary">
        <lane disallow="tram rail_urban rail rail_electric ship" id="-230239448#0_0" index="0" length="172.67" shape="4973.32,1016.53 4957.15,1122.63 4953.37,1143.24 4949.21,1161.47 4944.09,1182.23" speed="27.78" />
        <lane disallow="tram rail_urban rail rail_electric ship" id="-230239448#0_1" index="1" length="172.67" shape="4970.06,1016.03 4953.90,1122.08 4950.14,1142.57 4946.00,1160.71 4940.89,1181.44" speed="27.78" />
    </edge>
    <edge Region="R1" from="2388615486" id="-230348924#0" priority="4" to="2388615487" type="highway.residential">
        <lane disallow="tram rail_urban rail rail_electric ship" id="-230348924#0_0" index="0" length="165.72" shape="4040.80,2715.70 4194.69,2750.45" speed="13.89" />
    </edge>
    <edge Region="R1" from="2388615485" id="-230348924#1" priority="4" to="2388615486" type="highway.residential">
        <lane disallow="tram rail_urban rail rail_electric ship" id="-230348924#1_0" index="0" length="155.98" shape="3887.15,2681.02 4031.53,2713.60" speed="13.89" />
    </edge>
    <edge Region="R1" from="822481082" id="-230348926#0" priority="4" to="2388615484" type="highway.residential">
        <lane disallow="tram rail_urban rail rail_electric ship" id="-230348926#0_0" index="0" length="371.91" shape="4070.90,2529.64 4140.17,2177.34" speed="13.89" />
    </edge>
    <edge Region="R1" from="2388615486" id="-230348926#1" priority="4" to="822481082" type="highway.residential">
        <lane disallow="tram rail_urban rail rail_electric ship" id="-230348926#1_0" index="0" length="185.13" shape="4035.20,2711.21 4069.06,2538.98" speed="13.89" />
    </edge>
    <edge Region="R3" from="2388619237" id="-230349953#0" priority="4" to="2388619238" type="highway.residential">
        <lane disallow="tram rail_urban rail rail_electric ship" id="-230349953#0_0" index="0" length="271.48" shape="4056.59,1949.57 4316.14,2003.12" speed="13.89" />
    </edge>
    <edge Region="R3" from="2388619236" id="-230349953#1" priority="4" to="2388619237" type="highway.residential">
        <lane disallow="tram rail_urban rail rail_electric ship" id="-230349953#1_0" index="0" length="219.87" shape="3841.67,1905.25 4050.38,1948.29" speed="13.89" />
    </edge>
    <edge Region="R3" from="2388626099" id="-230350699" priority="4" to="2388626097" type="highway.residential">
        <lane disallow="tram rail_urban rail rail_electric ship" id="-230350699_0" index="0" length="119.22" shape="4052.28,1310.83 3945.97,1280.64" speed="13.89" />
    </edge>
    <edge Region="R3" from="479985643" id="-230350700#0" priority="4" to="2388626102" type="highway.residential">
        <lane disallow="tram rail_urban rail rail_electric ship" id="-230350700#0_0" index="0" length="236.91" shape="4161.51,1489.85 4387.37,1535.60" speed="13.89" />
    </edge>
    <edge Region="R3" from="1110091506" id="-230350700#1" priority="4" to="479985643" type="highway.residential">
        <lane disallow="tram rail_urban rail rail_electric ship" id="-230350700#1_0" index="0" length="159.19" shape="4006.79,1454.05 4155.41,1488.53" speed="13.89" />
    </edge>
    <edge Region="R1" from="2389795324" id="-230477506" priority="4" to="2387375099" type="highway.residential">
        <lane disallow="tram rail_urban rail rail_electric ship" id="-230477506_0" index="0" length="446.13" shape="4513.75,1800.51 4428.53,2228.58" speed="13.89" />
    </edge>
    <edge Region="R3" from="2389795323" id="-230477507" priority="4" to="2389795324" type="highway.residential">
        <lane disallow="tram rail_urban rail rail_electric ship" id="-230477507_0" index="0" length="225.93" shape="4559.83,1579.36 4515.66,1791.17" speed="13.89" />
    </edge>
    <edge Region="R3" from="479978564" id="-230491007" priority="7" shape="4932.69,1206.26 4906.98,1298.18 4902.64,1313.56" to="R3_Junction7" type="highway.secondary">
        <lane disallow="tram rail_urban rail rail_electric ship" id="-230491007_0" index="0" length="115.78" shape="4937.42,1207.73 4911.75,1299.51 4908.79,1310.00" speed="27.78" />
        <lane disallow="tram rail_urban rail rail_electric ship" id="-230491007_1" index="1" length="115.78" shape="4934.24,1206.84 4908.57,1298.62 4905.61,1309.10" speed="27.78" />
    </edge>
    <edge Region="R3" from="R2_Junction4" id="-230493745#0" priority="6" shape="6175.71,1175.64 6019.80,1166.77 5989.15,1164.32 5962.40,1161.49 5743.52,1136.15 5723.10,1134.70 5703.28,1134.06 5632.90,1133.43" to="2387667421" type="highway.tertiary">
        <lane disallow="tram rail_urban rail rail_electric ship" id="-230493745#0_0" index="0" length="544.84" shape="6170.81,1177.01 6019.69,1168.42 5989.00,1165.96 5962.22,1163.13 5743.37,1137.79 5723.01,1136.35 5703.25,1135.71 5632.89,1135.08" speed="22.22" />
    </edge>
    <edge Region="R2" from="479975175" id="-230493745#1" priority="6" to="R2_Junction4" type="highway.tertiary">