<nodes>
<!-- 	<join nodes="1091232686 479970097 1091232602 832425852"/>
	<join nodes="2597891875 2597891874"/>
	<join nodes="479970073 832425883"/>
	<join nodes="1580625968 840450747"/>
	<join nodes="461453450 832425865"/>
	<join nodes="836091913 836091935 836091926 836091939"/>
	<join nodes="324830797 832425895"/>
	<join nodes="832430817 832430821"/>
	<join nodes="835125221 836091954"/>
	<join nodes="400709716 5240921810"/>
	
	<join nodes="2389928234 2390600738"/>
	<join nodes="599702655 599702584"/> -->
<!-- 	<join nodes="5240921811 461717812"/>
	<join nodes="836091929 836091941"/> -->
	<join nodes="599702584 599702655"/>
</nodes>